@<TRIPOS>MOLECULE
Dexa
 43 52 0 0 0
SMALL
GASTEIGER

@<TRIPOS>ATOM
      1 C          -2.6960   -1.5170   -0.0000 C.2     1  Dexa       -0.0184
      2 C          -4.6220   -2.1630    0.0000 C.2     1  Dexa       -0.0489
      3 C          -3.1410   -4.3170   -0.0160 C.2     1  Dexa       -0.0478
      4 C          -1.9550   -3.7030    0.0000 C.2     1  Dexa       -0.0323
      5 C          -0.5340   -4.8720   -0.0050 C.2     1  Dexa       -0.0613
      6 C           0.7120   -3.7030    0.0000 C.2     1  Dexa       -0.0769
      7 C           0.6440    1.7050    0.0600 C.3     1  Dexa        0.0328
      8 C           3.0290   -1.7020   -1.1340 C.2     1  Dexa       -0.0774
      9 C          -4.6220   -3.7030    0.0000 C.3     1  Dexa        0.0925
     10 O          -5.2340   -3.8560   -1.2540 O.3     1  Dexa       -0.3837
     11 C           3.5520    0.3160   -0.3970 C.3     1  Dexa        0.1654
     12 O           4.4330    0.4730    0.6970 O.3     1  Dexa       -0.3223
     13 C           3.9560   -0.7870   -1.2580 C.2     1  Dexa       -0.0382
     14 C           5.1470   -0.8690   -2.1710 C.3     1  Dexa       -0.0409
     15 C          -1.9550   -2.1630    0.0000 C.3     1  Dexa        0.0922
     16 C          -1.9550   -0.6230    0.0000 C.3     1  Dexa        0.1413
     17 C           2.0460    0.1470    0.0000 C.3     1  Dexa        0.0505
     18 C           2.0460    1.6870    0.0000 C.2     1  Dexa       -0.0093
     19 C           2.0460   -1.3930    0.0000 C.3     1  Dexa       -0.0000
     20 H           2.0460   -2.9330    0.0000 H       1  Dexa        0.0359
     21 C          -0.6210   -1.3930    0.0000 C.3     1  Dexa        0.1669
     22 F          -0.6210   -2.9330    0.0000 F       1  Dexa       -0.2368
     23 C          -0.6210    0.1470    0.0000 C.3     1  Dexa        0.1474
     24 O          -1.9550    0.9170    0.0000 O.3     1  Dexa       -0.3512
     25 C           4.2750    1.6040   -0.1350 C.3     1  Dexa        0.2625
     26 O           5.2270    1.8310   -1.1300 O.3     1  Dexa       -0.3563
     27 C           0.7120   -2.1630    0.0000 C.3     1  Dexa        0.0227
     28 H           0.7120   -0.6230    0.0000 H       1  Dexa        0.0381
     29 C           3.1030    2.4580   -0.0150 C.2     1  Dexa        0.1566
     30 O           3.0880    3.8030    0.0660 O.2     1  Dexa       -0.5057
     31 H          -5.4920   -1.5140   -0.0020 H       1  Dexa        0.0601
     32 H          -2.9010   -5.4220   -0.0440 H       1  Dexa        0.0604
     33 H          -0.4740   -5.9510   -0.0050 H       1  Dexa        0.0618
     34 H           1.6340   -4.5360    0.0050 H       1  Dexa        0.0576
     35 H           0.4690    2.1830    1.0460 H       1  Dexa        0.0387
     36 H           3.0910   -2.6220   -1.7170 H       1  Dexa        0.0576
     37 H          -4.6220   -4.7730    0.0000 H       1  Dexa        0.0683
     38 H          -6.2170   -3.9130   -1.0960 H       1  Dexa        0.2106
     39 H           5.1690   -1.8380   -2.7120 H       1  Dexa        0.0275
     40 H           6.0780   -0.7750   -1.5750 H       1  Dexa        0.0275
     41 H           5.1010   -0.0520   -2.9200 H       1  Dexa        0.0275
     42 H           5.9990    2.2350   -0.6570 H       1  Dexa        0.2133
     43 H           3.9110    4.3110    0.0480 H       1  Dexa        0.2919
@<TRIPOS>BOND
     1     1     2    2
     2     1    15    1
     3     1    16    1
     4     2     9    1
     5     2    31    1
     6     3     9    1
     7     3     4    2
     8     3    32    1
     9     4    15    1
    10     4     5    1
    11     5     6    2
    12     5    33    1
    13     6    27    1
    14     6    34    1
    15     7    23    1
    16     7    17    1
    17     7    18    1
    18     7    35    1
    19     8    19    1
    20     8    13    2
    21     8    36    1
    22     9    10    1
    23     9    37    1
    24    10    38    1
    25    11    17    1
    26    11    13    1
    27    11    25    1
    28    11    12    1
    29    12    25    1
    30    13    14    1
    31    14    39    1
    32    14    40    1
    33    14    41    1
    34    15    21    1
    35    15    16    1
    36    16    23    1
    37    16    24    1
    38    17    19    1
    39    17    18    1
    40    18    29    2
    41    19    27    1
    42    19    20    1
    43    21    27    1
    44    21    23    1
    45    21    22    1
    46    23    24    1
    47    25    29    1
    48    25    26    1
    49    26    42    1
    50    27    28    1
    51    29    30    1
    52    30    43    1
