@<TRIPOS>MOLECULE
Umifenovir
 52 55 0 0 0
SMALL
GASTEIGER

@<TRIPOS>ATOM
      1 C          -4.5347    1.9280    0.1131 C.3     1  Umifenovir       -0.0306
      2 C          -3.0614    2.2730    0.2734 C.3     1  Umifenovir        0.0900
      3 O          -2.3057    1.1367    0.0753 O.3     1  Umifenovir       -0.4614
      4 C          -0.9522    1.0761    0.1440 C.2     1  Umifenovir        0.3415
      5 O          -0.3365    2.0909    0.4104 O.2     1  Umifenovir       -0.2449
      6 C          -0.2441   -0.2345   -0.0747 C.ar    1  Umifenovir        0.0886
      7 C          -0.9035   -1.4755   -0.2665 C.ar    1  Umifenovir        0.0437
      8 N           0.0247   -2.4714   -0.4137 N.ar    1  Umifenovir       -0.3453
      9 C           1.2365   -1.8811   -0.3179 C.ar    1  Umifenovir        0.0514
     10 C           1.1388   -0.5152   -0.1169 C.ar    1  Umifenovir        0.0221
     11 C           2.3285    0.2691   -0.0152 C.ar    1  Umifenovir        0.0194
     12 C           3.5786   -0.4033   -0.0742 C.ar    1  Umifenovir        0.1414
     13 C           3.6435   -1.7891   -0.2806 C.ar    1  Umifenovir        0.0618
     14 C           2.4729   -2.5332   -0.4093 C.ar    1  Umifenovir       -0.0201
     15 Br          5.3326   -2.6851   -0.3721 Br      1  Umifenovir       -0.0464
     16 O           4.7284    0.2910    0.0853 O.3     1  Umifenovir       -0.4752
     17 C           2.3578    1.7780    0.1425 C.3     1  Umifenovir        0.0309
     18 N           3.7082    2.3556   -0.0455 N.3     1  Umifenovir       -0.2691
     19 C           3.7452    3.7548    0.4023 C.3     1  Umifenovir       -0.0094
     20 C           4.7277    1.5536    0.6336 C.3     1  Umifenovir        0.1435
     21 C          -0.1115   -3.9190   -0.6344 C.3     1  Umifenovir        0.0122
     22 C          -2.4312   -1.5682   -0.2756 C.3     1  Umifenovir        0.0395
     23 S          -3.3025   -3.1547   -0.4900 S.3     1  Umifenovir       -0.1190
     24 C          -4.9190   -2.4329   -0.1906 C.ar    1  Umifenovir        0.0082
     25 C          -5.4584   -2.4360    1.1020 C.ar    1  Umifenovir       -0.0483
     26 C          -6.7130   -1.8654    1.3385 C.ar    1  Umifenovir       -0.0607
     27 C          -7.4305   -1.2909    0.2846 C.ar    1  Umifenovir       -0.0617
     28 C          -6.8941   -1.2875   -1.0069 C.ar    1  Umifenovir       -0.0607
     29 C          -5.6398   -1.8582   -1.2454 C.ar    1  Umifenovir       -0.0483
     30 H          -5.1530    2.8365    0.2712 H       1  Umifenovir        0.0262
     31 H          -4.8288    1.1565    0.8567 H       1  Umifenovir        0.0262
     32 H          -4.7249    1.5350   -0.9085 H       1  Umifenovir        0.0262
     33 H          -2.8871    2.6689    1.2977 H       1  Umifenovir        0.0695
     34 H          -2.7820    3.0478   -0.4737 H       1  Umifenovir        0.0695
     35 H           2.5381   -3.6014   -0.5661 H       1  Umifenovir        0.0650
     36 H           1.9545    2.0286    1.1488 H       1  Umifenovir        0.0478
     37 H           1.7352    2.2157   -0.6650 H       1  Umifenovir        0.0478
     38 H           2.9878    4.3522   -0.1494 H       1  Umifenovir        0.0392
     39 H           4.7408    4.1986    0.1867 H       1  Umifenovir        0.0392
     40 H           3.5440    3.8328    1.4940 H       1  Umifenovir        0.0392
     41 H           5.7383    1.9973    0.5042 H       1  Umifenovir        0.0873
     42 H           4.5044    1.4872    1.7235 H       1  Umifenovir        0.0873
     43 H          -1.1308   -4.2880   -0.7040 H       1  Umifenovir        0.0456
     44 H           0.3720   -4.4682    0.2011 H       1  Umifenovir        0.0456
     45 H           0.3888   -4.1961   -1.5866 H       1  Umifenovir        0.0456
     46 H          -2.7862   -0.9223   -1.1062 H       1  Umifenovir        0.0443
     47 H          -2.7639   -1.1773    0.7098 H       1  Umifenovir        0.0443
     48 H          -4.9062   -2.8769    1.9223 H       1  Umifenovir        0.0629
     49 H          -7.1283   -1.8674    2.3380 H       1  Umifenovir        0.0618
     50 H          -8.4011   -0.8487    0.4687 H       1  Umifenovir        0.0618
     51 H          -7.4496   -0.8421   -1.8220 H       1  Umifenovir        0.0618
     52 H          -5.2284   -1.8502   -2.2468 H       1  Umifenovir        0.0629
@<TRIPOS>BOND
     1     1     2    1
     2     1    30    1
     3     1    31    1
     4     1    32    1
     5     2     3    1
     6     2    33    1
     7     2    34    1
     8     3     4    1
     9     4     5    2
    10     4     6    1
    11     6     7   ar
    12     6    10   ar
    13     7     8   ar
    14     7    22    1
    15     8     9   ar
    16     8    21    1
    17     9    10   ar
    18     9    14   ar
    19    10    11   ar
    20    11    12   ar
    21    11    17    1
    22    12    13   ar
    23    12    16    1
    24    13    14   ar
    25    13    15    1
    26    14    35    1
    27    16    20    1
    28    17    18    1
    29    17    36    1
    30    17    37    1
    31    18    19    1
    32    18    20    1
    33    19    38    1
    34    19    39    1
    35    19    40    1
    36    20    41    1
    37    20    42    1
    38    21    43    1
    39    21    44    1
    40    21    45    1
    41    22    23    1
    42    22    46    1
    43    22    47    1
    44    23    24    1
    45    24    25   ar
    46    24    29   ar
    47    25    26   ar
    48    25    48    1
    49    26    27   ar
    50    26    49    1
    51    27    28   ar
    52    27    50    1
    53    28    29   ar
    54    28    51    1
    55    29    52    1
